    3
         0      -76.3211206618  -1.303518E-11   1.207060E-01  -8.136823E-01
 O                0.00000000    -0.01682581     0.11342108       0.00000000     0.00272962     0.00101163
 H                0.00000000     0.81325075    -0.34302988      -0.00000000    -0.03553239     0.00728733
 H                0.00000000    -0.67864425    -0.56433880       0.00000000    -0.00778865    -0.02334263
    3
         5      -76.3222783406  -2.610093E-10   1.084653E-01  -8.252185E-01
 O               -0.00000000    -0.01443840     0.11494602      -0.00000000     0.00103132     0.00156088
 H                0.00000000     0.78491189    -0.34080244       0.00000000    -0.00972863    -0.00513930
 H               -0.00000000    -0.68819540    -0.59076811       0.00000000    -0.00663921    -0.01963302
